Version 4
SHEET 1 2188 680
WIRE 432 -752 288 -752
WIRE 528 -752 432 -752
WIRE 672 -752 528 -752
WIRE 1008 -752 928 -752
WIRE 1136 -752 1008 -752
WIRE 1232 -752 1136 -752
WIRE 432 -720 432 -752
WIRE 528 -720 528 -752
WIRE 1008 -720 1008 -752
WIRE 1136 -720 1136 -752
WIRE 288 -656 288 -752
WIRE 432 -608 432 -656
WIRE 528 -608 528 -656
WIRE 528 -608 432 -608
WIRE 800 -608 800 -656
WIRE 800 -608 528 -608
WIRE 1008 -608 1008 -656
WIRE 1008 -608 800 -608
WIRE 1136 -608 1136 -656
WIRE 1136 -608 1008 -608
WIRE 288 -528 288 -576
WIRE 800 -528 800 -608
WIRE 112 -384 112 -416
WIRE 192 -384 112 -384
WIRE 112 -368 112 -384
WIRE 192 -320 192 -384
WIRE 192 -320 160 -320
WIRE 112 -272 112 -288
WIRE 928 -240 544 -240
WIRE 1712 -240 928 -240
WIRE 16 -192 16 -416
WIRE 928 -176 928 -240
WIRE 112 -160 112 -192
WIRE 368 -160 112 -160
WIRE 896 -160 368 -160
WIRE 1712 -160 1712 -240
WIRE 1136 -144 960 -144
WIRE 1360 -144 1136 -144
WIRE 368 -128 368 -160
WIRE 896 -128 880 -128
WIRE 1360 -112 1360 -144
WIRE 1136 -64 1136 -144
WIRE 1200 -64 1136 -64
WIRE 1136 -48 1136 -64
WIRE 112 -32 112 -160
WIRE 192 -32 112 -32
WIRE 544 -32 544 -240
WIRE 368 -16 368 -48
WIRE 368 -16 256 -16
WIRE 512 -16 368 -16
WIRE 16 0 16 -112
WIRE 192 0 16 0
WIRE 752 0 576 0
WIRE 768 0 752 0
WIRE 880 0 880 -128
WIRE 880 0 848 0
WIRE 944 0 880 0
WIRE 1088 0 1024 0
WIRE 1200 0 1200 -64
WIRE 1200 0 1168 0
WIRE 512 16 432 16
WIRE 1360 16 1360 -32
WIRE 16 48 16 0
WIRE 224 48 224 16
WIRE 432 144 432 16
WIRE 544 144 432 144
WIRE 752 144 752 0
WIRE 752 144 624 144
WIRE 16 176 16 128
WIRE 432 192 432 144
WIRE 432 304 432 272
WIRE 432 480 432 384
FLAG 16 176 0
FLAG 288 -528 0
FLAG 432 480 0
FLAG 1360 16 0
FLAG 1712 -160 0
FLAG 224 48 0
FLAG 224 -48 Vref
IOPIN 224 -48 In
FLAG 544 32 Vref
IOPIN 544 32 In
FLAG 928 -112 Vref
IOPIN 928 -112 In
FLAG 800 -528 0
FLAG 1232 -752 Vref
IOPIN 1232 -752 Out
FLAG 112 -416 Vref
IOPIN 112 -416 In
FLAG 16 -416 Vref
IOPIN 16 -416 In
SYMBOL res 0 32 R0
SYMATTR InstName R6
SYMATTR Value 10K
SYMATTR SpiceLine tol=1 pwr=0.1
SYMBOL res 0 -208 R0
SYMATTR InstName R5
SYMATTR Value 10K
SYMATTR SpiceLine tol=1 pwr=0.1
SYMBOL voltage 288 -672 R0
WINDOW 123 0 0 Left 2
WINDOW 39 0 0 Left 2
SYMATTR InstName V1
SYMATTR Value 12
SYMBOL res 96 -288 R0
SYMATTR InstName R4
SYMATTR Value 2.49K
SYMATTR SpiceLine tol=1 pwr=0.1
SYMBOL res 352 -144 R0
SYMATTR InstName R3
SYMATTR Value 157.33
SYMATTR SpiceLine tol=1 pwr=0.1
SYMBOL res 640 128 R90
WINDOW 0 0 56 VBottom 2
WINDOW 3 32 56 VTop 2
SYMATTR InstName R10
SYMATTR Value 200
SYMBOL res 864 -16 R90
WINDOW 0 0 56 VBottom 2
WINDOW 3 32 56 VTop 2
SYMATTR InstName R8
SYMATTR Value 200
SYMATTR SpiceLine tol=1 pwr=0.1
SYMBOL res 1040 -16 R90
WINDOW 0 0 56 VBottom 2
WINDOW 3 32 56 VTop 2
SYMATTR InstName R7
SYMATTR Value 4700
SYMATTR SpiceLine tol=1 pwr=0.1
SYMBOL res 1344 -128 R0
SYMATTR InstName R12
SYMATTR Value 100K
SYMATTR SpiceLine tol=1 pwr=0.1
SYMBOL Opamps\\OPA2340 224 -80 R0
SYMATTR InstName U4
SYMBOL Opamps\\OPA2340 544 64 M180
SYMATTR InstName U1
SYMBOL Opamps\\OPA2340 928 -80 M180
SYMATTR InstName U2
SYMBOL Vreg\\7805 800 -752 R0
SYMATTR InstName U3
SYMBOL cap 992 -720 R0
SYMATTR InstName C3
SYMATTR Value 0.1µ
SYMATTR SpiceLine V=25 Irms=1.34 Rser=0.0989014 Lser=0 mfg="KEMET" pn="C0805C104K3RAC" type="X7R"
SYMBOL cap 512 -720 R0
SYMATTR InstName C2
SYMATTR Value 0.1µ
SYMATTR SpiceLine V=25 Irms=1.34 Rser=0.0989014 Lser=0 mfg="KEMET" pn="C0805C104K3RAC" type="X7R"
SYMBOL polcap 416 -720 R0
WINDOW 3 24 56 Left 2
SYMATTR Value 33µ
SYMATTR InstName C1
SYMATTR Description Capacitor
SYMATTR Type cap
SYMATTR SpiceLine V=50 Irms=260m Rser=0.6 Lser=0 mfg="Panasonic" pn="ECA1HFQ330" type="Al electrolytic"
SYMBOL polcap 1120 -720 R0
WINDOW 3 24 56 Left 2
SYMATTR Value 33µ
SYMATTR InstName C4
SYMATTR Description Capacitor
SYMATTR Type cap
SYMATTR SpiceLine V=50 Irms=260m Rser=0.6 Lser=0 mfg="Panasonic" pn="ECA1HFQ330" type="Al electrolytic"
SYMBOL Pot&Sw\\potentiometer 96 -384 R0
SYMATTR InstName R2
SYMATTR Value Rt=100 set=10
SYMBOL Pot&Sw\\potentiometer 1072 16 R270
SYMATTR InstName R1
SYMATTR Value Rt=500 set=405
SYMBOL res 416 176 R0
SYMATTR InstName R9
SYMATTR Value 390
SYMATTR SpiceLine tol=1 pwr=0.1
SYMBOL res 416 288 R0
SYMATTR InstName R11
SYMATTR Value 2K
SYMATTR SpiceLine tol=1 pwr=0.1
TEXT -56 504 Left 2 !.tran 0 1 0 100m
